.MODEL pdio D
+ LEVEL = 3
+ IS = 3.37834e-11
+ ISW = 4.87368e-17
+ RS = 8.41577e-08
+ N = 0.556726
+ IKF = 0.6
+ IKR = 1e-06
+ BV = 13.1509
+ IBV = 1e-07
+ CAPMOD = 0
+ CJO = 0.000686784
+ VJ = 0.883825
+ MJ = 0.478884
+ FC = 0.627155
+ CJSW = 3.34926e-10
+ VJSW = 0.513784
+ MJSW = 0.166316
+ FCSW = 0.95
+ VTH0 = 0.6064
+ K1 = 0.79946
+ K2 = 0.02345
